67734
  -OEChem-09232400292D

 24 23  0     0  0  0  0  0  0999 V2000
    8.0622    1.5000    0.0000 S   0  0  0  0  0  0  0  0  0  0  0  0
    4.9641    0.8660    0.0000 F   0  0  0  0  0  0  0  0  0  0  0  0
    5.9641   -0.8660    0.0000 F   0  0  0  0  0  0  0  0  0  0  0  0
    5.8301    1.3660    0.0000 F   0  0  0  0  0  0  0  0  0  0  0  0
    6.8301   -0.3660    0.0000 F   0  0  0  0  0  0  0  0  0  0  0  0
    4.0981    0.3660    0.0000 F   0  0  0  0  0  0  0  0  0  0  0  0
    5.0981   -1.3660    0.0000 F   0  0  0  0  0  0  0  0  0  0  0  0
    7.6962    0.1340    0.0000 F   0  0  0  0  0  0  0  0  0  0  0  0
    6.6962    1.8660    0.0000 F   0  0  0  0  0  0  0  0  0  0  0  0
    3.2320   -0.1340    0.0000 F   0  0  0  0  0  0  0  0  0  0  0  0
    4.2320   -1.8660    0.0000 F   0  0  0  0  0  0  0  0  0  0  0  0
    2.0000   -2.0000    0.0000 F   0  0  0  0  0  0  0  0  0  0  0  0
    2.3660   -0.6340    0.0000 F   0  0  0  0  0  0  0  0  0  0  0  0
    3.3660   -2.3660    0.0000 F   0  0  0  0  0  0  0  0  0  0  0  0
    8.9282    2.0000    0.0000 O   0  0  0  0  0  0  0  0  0  0  0  0
    8.5622    0.6340    0.0000 O   0  0  0  0  0  0  0  0  0  0  0  0
    7.5622    2.3660    0.0000 O   0  0  0  0  0  0  0  0  0  0  0  0
    5.4641    0.0000    0.0000 C   0  0  0  0  0  0  0  0  0  0  0  0
    6.3301    0.5000    0.0000 C   0  0  0  0  0  0  0  0  0  0  0  0
    4.5981   -0.5000    0.0000 C   0  0  0  0  0  0  0  0  0  0  0  0
    7.1962    1.0000    0.0000 C   0  0  0  0  0  0  0  0  0  0  0  0
    3.7320   -1.0000    0.0000 C   0  0  0  0  0  0  0  0  0  0  0  0
    2.8660   -1.5000    0.0000 C   0  0  0  0  0  0  0  0  0  0  0  0
    9.4651    1.6900    0.0000 H   0  0  0  0  0  0  0  0  0  0  0  0
  1 15  1  0  0  0  0
  1 16  2  0  0  0  0
  1 17  2  0  0  0  0
  1 21  1  0  0  0  0
  2 18  1  0  0  0  0
  3 18  1  0  0  0  0
  4 19  1  0  0  0  0
  5 19  1  0  0  0  0
  6 20  1  0  0  0  0
  7 20  1  0  0  0  0
  8 21  1  0  0  0  0
  9 21  1  0  0  0  0
 10 22  1  0  0  0  0
 11 22  1  0  0  0  0
 12 23  1  0  0  0  0
 13 23  1  0  0  0  0
 14 23  1  0  0  0  0
 15 24  1  0  0  0  0
 18 19  1  0  0  0  0
 18 20  1  0  0  0  0
 19 21  1  0  0  0  0
 20 22  1  0  0  0  0
 22 23  1  0  0  0  0
M  END
> <PUBCHEM_COMPOUND_CID>
67734

> <PUBCHEM_COMPOUND_CANONICALIZED>
1

> <PUBCHEM_CACTVS_COMPLEXITY>
553

> <PUBCHEM_CACTVS_HBOND_ACCEPTOR>
16

> <PUBCHEM_CACTVS_HBOND_DONOR>
1

> <PUBCHEM_CACTVS_ROTATABLE_BOND>
5

> <PUBCHEM_CACTVS_SUBSKEYS>
AAADcQBgMcBAAAAAAAAAAAAAAAAAAAAAAAAAAAAAAAAAAAAAAAAACQQACAAACAAAQBAAAAAAAIIAAAAAAHBAAAAAAAAAAAAAAAAAAAIAAAAAAAAAAAAAAAEAAAAAAAAAAAAAAAAAAAAAAAAAAAAAAAAAAA==

> <PUBCHEM_IUPAC_OPENEYE_NAME>
1,1,2,2,3,3,4,4,5,5,6,6,6-tridecafluorohexane-1-sulfonic acid

> <PUBCHEM_IUPAC_CAS_NAME>
1,1,2,2,3,3,4,4,5,5,6,6,6-tridecafluoro-1-hexanesulfonic acid

> <PUBCHEM_IUPAC_NAME_MARKUP>
1,1,2,2,3,3,4,4,5,5,6,6,6-tridecafluorohexane-1-sulfonic acid

> <PUBCHEM_IUPAC_NAME>
1,1,2,2,3,3,4,4,5,5,6,6,6-tridecafluorohexane-1-sulfonic acid

> <PUBCHEM_IUPAC_SYSTEMATIC_NAME>
1,1,2,2,3,3,4,4,5,5,6,6,6-tridecakis(fluoranyl)hexane-1-sulfonic acid

> <PUBCHEM_IUPAC_TRADITIONAL_NAME>
1,1,2,2,3,3,4,4,5,5,6,6,6-tridecafluorohexane-1-sulfonic acid

> <PUBCHEM_IUPAC_INCHI>
InChI=1S/C6HF13O3S/c7-1(8,3(11,12)5(15,16)17)2(9,10)4(13,14)6(18,19)23(20,21)22/h(H,20,21,22)

> <PUBCHEM_IUPAC_INCHIKEY>
QZHDEAJFRJCDMF-UHFFFAOYSA-N

> <PUBCHEM_XLOGP3_AA>
3.7

> <PUBCHEM_EXACT_MASS>
399.9438812

> <PUBCHEM_MOLECULAR_FORMULA>
C6HF13O3S

> <PUBCHEM_MOLECULAR_WEIGHT>
400.12

> <PUBCHEM_OPENEYE_CAN_SMILES>
C(C(C(C(F)(F)S(=O)(=O)O)(F)F)(F)F)(C(C(F)(F)F)(F)F)(F)F

> <PUBCHEM_OPENEYE_ISO_SMILES>
C(C(C(C(F)(F)S(=O)(=O)O)(F)F)(F)F)(C(C(F)(F)F)(F)F)(F)F

> <PUBCHEM_CACTVS_TPSA>
62.8

> <PUBCHEM_MONOISOTOPIC_WEIGHT>
399.9438812

> <PUBCHEM_TOTAL_CHARGE>
0

> <PUBCHEM_HEAVY_ATOM_COUNT>
23

> <PUBCHEM_ATOM_DEF_STEREO_COUNT>
0

> <PUBCHEM_ATOM_UDEF_STEREO_COUNT>
0

> <PUBCHEM_BOND_DEF_STEREO_COUNT>
0

> <PUBCHEM_BOND_UDEF_STEREO_COUNT>
0

> <PUBCHEM_ISOTOPIC_ATOM_COUNT>
0

> <PUBCHEM_COMPONENT_COUNT>
1

> <PUBCHEM_CACTVS_TAUTO_COUNT>
-1

> <PUBCHEM_COORDINATE_TYPE>
1
5
255

$$$$
8449
  -OEChem-09232400292D

 13 13  0     0  0  0  0  0  0999 V2000
    2.0000    0.8450    0.0000 Cl  0  0  0  0  0  0  0  0  0  0  0  0
    3.7320   -2.1550    0.0000 Cl  0  0  0  0  0  0  0  0  0  0  0  0
    3.7320    1.8450    0.0000 O   0  0  0  0  0  0  0  0  0  0  0  0
    3.7320    0.8450    0.0000 C   0  0  0  0  0  0  0  0  0  0  0  0
    2.8660    0.3450    0.0000 C   0  0  0  0  0  0  0  0  0  0  0  0
    4.5981    0.3450    0.0000 C   0  0  0  0  0  0  0  0  0  0  0  0
    2.8660   -0.6550    0.0000 C   0  0  0  0  0  0  0  0  0  0  0  0
    4.5981   -0.6550    0.0000 C   0  0  0  0  0  0  0  0  0  0  0  0
    3.7320   -1.1550    0.0000 C   0  0  0  0  0  0  0  0  0  0  0  0
    5.1350    0.6550    0.0000 H   0  0  0  0  0  0  0  0  0  0  0  0
    2.3291   -0.9650    0.0000 H   0  0  0  0  0  0  0  0  0  0  0  0
    5.1350   -0.9650    0.0000 H   0  0  0  0  0  0  0  0  0  0  0  0
    4.2690    2.1550    0.0000 H   0  0  0  0  0  0  0  0  0  0  0  0
  1  5  1  0  0  0  0
  2  9  1  0  0  0  0
  3  4  1  0  0  0  0
  3 13  1  0  0  0  0
  4  5  2  0  0  0  0
  4  6  1  0  0  0  0
  5  7  1  0  0  0  0
  6  8  2  0  0  0  0
  6 10  1  0  0  0  0
  7  9  2  0  0  0  0
  7 11  1  0  0  0  0
  8  9  1  0  0  0  0
  8 12  1  0  0  0  0
M  END
> <PUBCHEM_COMPOUND_CID>
8449

> <PUBCHEM_COMPOUND_CANONICALIZED>
1

> <PUBCHEM_CACTVS_COMPLEXITY>
97.1

> <PUBCHEM_CACTVS_HBOND_ACCEPTOR>
1

> <PUBCHEM_CACTVS_HBOND_DONOR>
1

> <PUBCHEM_CACTVS_ROTATABLE_BOND>
0

> <PUBCHEM_CACTVS_SUBSKEYS>
AAADcYBgIAAGAAAAAAAAAAAAAAAAAAAAAAAwAAAAAAAAAAABAAAAGgIACAAACAaAkCAwBoAAAgCAACBCAAACAAAgJUAIiAAGC4gIJiKDExKAcAAkwBEImAeAQAAAACAAAACACAAAQAAAAQAQAAAAAAAAAA==

> <PUBCHEM_IUPAC_OPENEYE_NAME>
2,4-dichlorophenol

> <PUBCHEM_IUPAC_CAS_NAME>
2,4-dichlorophenol

> <PUBCHEM_IUPAC_NAME_MARKUP>
2,4-dichlorophenol

> <PUBCHEM_IUPAC_NAME>
2,4-dichlorophenol

> <PUBCHEM_IUPAC_SYSTEMATIC_NAME>
2,4-bis(chloranyl)phenol

> <PUBCHEM_IUPAC_TRADITIONAL_NAME>
2,4-dichlorophenol

> <PUBCHEM_IUPAC_INCHI>
InChI=1S/C6H4Cl2O/c7-4-1-2-6(9)5(8)3-4/h1-3,9H

> <PUBCHEM_IUPAC_INCHIKEY>
HFZWRUODUSTPEG-UHFFFAOYSA-N

> <PUBCHEM_XLOGP3>
3.1

> <PUBCHEM_EXACT_MASS>
161.9639201

> <PUBCHEM_MOLECULAR_FORMULA>
C6H4Cl2O

> <PUBCHEM_MOLECULAR_WEIGHT>
163.00

> <PUBCHEM_OPENEYE_CAN_SMILES>
C1=CC(=C(C=C1Cl)Cl)O

> <PUBCHEM_OPENEYE_ISO_SMILES>
C1=CC(=C(C=C1Cl)Cl)O

> <PUBCHEM_CACTVS_TPSA>
20.2

> <PUBCHEM_MONOISOTOPIC_WEIGHT>
161.9639201

> <PUBCHEM_TOTAL_CHARGE>
0

> <PUBCHEM_HEAVY_ATOM_COUNT>
9

> <PUBCHEM_ATOM_DEF_STEREO_COUNT>
0

> <PUBCHEM_ATOM_UDEF_STEREO_COUNT>
0

> <PUBCHEM_BOND_DEF_STEREO_COUNT>
0

> <PUBCHEM_BOND_UDEF_STEREO_COUNT>
0

> <PUBCHEM_ISOTOPIC_ATOM_COUNT>
0

> <PUBCHEM_COMPONENT_COUNT>
1

> <PUBCHEM_CACTVS_TAUTO_COUNT>
-1

> <PUBCHEM_COORDINATE_TYPE>
1
5
255

> <PUBCHEM_BONDANNOTATIONS>
4  5  8
4  6  8
5  7  8
6  8  8
7  9  8
8  9  8

$$$$
66
  -OEChem-09232400292D

 13 13  0     0  0  0  0  0  0999 V2000
    2.0000    0.3450    0.0000 Cl  0  0  0  0  0  0  0  0  0  0  0  0
    5.4641   -1.6550    0.0000 Cl  0  0  0  0  0  0  0  0  0  0  0  0
    3.7320    1.3450    0.0000 O   0  0  0  0  0  0  0  0  0  0  0  0
    3.7320    0.3450    0.0000 C   0  0  0  0  0  0  0  0  0  0  0  0
    2.8660   -0.1550    0.0000 C   0  0  0  0  0  0  0  0  0  0  0  0
    4.5981   -0.1550    0.0000 C   0  0  0  0  0  0  0  0  0  0  0  0
    4.5981   -1.1550    0.0000 C   0  0  0  0  0  0  0  0  0  0  0  0
    2.8660   -1.1550    0.0000 C   0  0  0  0  0  0  0  0  0  0  0  0
    3.7320   -1.6550    0.0000 C   0  0  0  0  0  0  0  0  0  0  0  0
    5.1350    0.1550    0.0000 H   0  0  0  0  0  0  0  0  0  0  0  0
    2.3291   -1.4650    0.0000 H   0  0  0  0  0  0  0  0  0  0  0  0
    3.7320   -2.2750    0.0000 H   0  0  0  0  0  0  0  0  0  0  0  0
    4.2690    1.6550    0.0000 H   0  0  0  0  0  0  0  0  0  0  0  0
  1  5  1  0  0  0  0
  2  7  1  0  0  0  0
  3  4  1  0  0  0  0
  3 13  1  0  0  0  0
  4  5  2  0  0  0  0
  4  6  1  0  0  0  0
  5  8  1  0  0  0  0
  6  7  2  0  0  0  0
  6 10  1  0  0  0  0
  7  9  1  0  0  0  0
  8  9  2  0  0  0  0
  8 11  1  0  0  0  0
  9 12  1  0  0  0  0
M  END
> <PUBCHEM_COMPOUND_CID>
66

> <PUBCHEM_COMPOUND_CANONICALIZED>
1

> <PUBCHEM_CACTVS_COMPLEXITY>
97.1

> <PUBCHEM_CACTVS_HBOND_ACCEPTOR>
1

> <PUBCHEM_CACTVS_HBOND_DONOR>
1

> <PUBCHEM_CACTVS_ROTATABLE_BOND>
0

> <PUBCHEM_CACTVS_SUBSKEYS>
AAADcYBgIAAGAAAAAAAAAAAAAAAAAAAAAAAwAAAAAAAAAAABAAAAGgIACAAACAaAkCAwBoAAAgCAACBCAAACAAAgJUAIiAAGC4gIJiKDExKAcAAkwBEImAeAQAAAAAAQAQAACAAAACACAAAQAAAAAAAAAA==

> <PUBCHEM_IUPAC_OPENEYE_NAME>
2,5-dichlorophenol

> <PUBCHEM_IUPAC_CAS_NAME>
2,5-dichlorophenol

> <PUBCHEM_IUPAC_NAME_MARKUP>
2,5-dichlorophenol

> <PUBCHEM_IUPAC_NAME>
2,5-dichlorophenol

> <PUBCHEM_IUPAC_SYSTEMATIC_NAME>
2,5-bis(chloranyl)phenol

> <PUBCHEM_IUPAC_TRADITIONAL_NAME>
2,5-dichlorophenol

> <PUBCHEM_IUPAC_INCHI>
InChI=1S/C6H4Cl2O/c7-4-1-2-5(8)6(9)3-4/h1-3,9H

> <PUBCHEM_IUPAC_INCHIKEY>
RANCECPPZPIPNO-UHFFFAOYSA-N

> <PUBCHEM_XLOGP3>
3.1

> <PUBCHEM_EXACT_MASS>
161.9639201

> <PUBCHEM_MOLECULAR_FORMULA>
C6H4Cl2O

> <PUBCHEM_MOLECULAR_WEIGHT>
163.00

> <PUBCHEM_OPENEYE_CAN_SMILES>
C1=CC(=C(C=C1Cl)O)Cl

> <PUBCHEM_OPENEYE_ISO_SMILES>
C1=CC(=C(C=C1Cl)O)Cl

> <PUBCHEM_CACTVS_TPSA>
20.2

> <PUBCHEM_MONOISOTOPIC_WEIGHT>
161.9639201

> <PUBCHEM_TOTAL_CHARGE>
0

> <PUBCHEM_HEAVY_ATOM_COUNT>
9

> <PUBCHEM_ATOM_DEF_STEREO_COUNT>
0

> <PUBCHEM_ATOM_UDEF_STEREO_COUNT>
0

> <PUBCHEM_BOND_DEF_STEREO_COUNT>
0

> <PUBCHEM_BOND_UDEF_STEREO_COUNT>
0

> <PUBCHEM_ISOTOPIC_ATOM_COUNT>
0

> <PUBCHEM_COMPONENT_COUNT>
1

> <PUBCHEM_CACTVS_TAUTO_COUNT>
-1

> <PUBCHEM_COORDINATE_TYPE>
1
5
255

> <PUBCHEM_BONDANNOTATIONS>
4  5  8
4  6  8
5  8  8
6  7  8
7  9  8
8  9  8

$$$$
7175
  -OEChem-09232400292D

 25 25  0     0  0  0  0  0  0999 V2000
    3.7320    1.1550    0.0000 O   0  0  0  0  0  0  0  0  0  0  0  0
    2.0000    1.1550    0.0000 O   0  0  0  0  0  0  0  0  0  0  0  0
    2.8660   -3.3450    0.0000 O   0  0  0  0  0  0  0  0  0  0  0  0
    4.5981    2.6550    0.0000 C   0  0  0  0  0  0  0  0  0  0  0  0
    3.7320    2.1550    0.0000 C   0  0  0  0  0  0  0  0  0  0  0  0
    2.8660   -0.3450    0.0000 C   0  0  0  0  0  0  0  0  0  0  0  0
    4.5981    3.6550    0.0000 C   0  0  0  0  0  0  0  0  0  0  0  0
    2.8660    0.6550    0.0000 C   0  0  0  0  0  0  0  0  0  0  0  0
    2.0000   -0.8450    0.0000 C   0  0  0  0  0  0  0  0  0  0  0  0
    3.7320   -0.8450    0.0000 C   0  0  0  0  0  0  0  0  0  0  0  0
    2.0000   -1.8450    0.0000 C   0  0  0  0  0  0  0  0  0  0  0  0
    3.7320   -1.8450    0.0000 C   0  0  0  0  0  0  0  0  0  0  0  0
    2.8660   -2.3450    0.0000 C   0  0  0  0  0  0  0  0  0  0  0  0
    4.8101    2.0724    0.0000 H   0  0  0  0  0  0  0  0  0  0  0  0
    5.2087    2.7627    0.0000 H   0  0  0  0  0  0  0  0  0  0  0  0
    3.5200    2.7376    0.0000 H   0  0  0  0  0  0  0  0  0  0  0  0
    3.1215    2.0473    0.0000 H   0  0  0  0  0  0  0  0  0  0  0  0
    5.2181    3.6550    0.0000 H   0  0  0  0  0  0  0  0  0  0  0  0
    4.5981    4.2750    0.0000 H   0  0  0  0  0  0  0  0  0  0  0  0
    3.9781    3.6550    0.0000 H   0  0  0  0  0  0  0  0  0  0  0  0
    1.4631   -0.5350    0.0000 H   0  0  0  0  0  0  0  0  0  0  0  0
    4.2690   -0.5350    0.0000 H   0  0  0  0  0  0  0  0  0  0  0  0
    1.4631   -2.1550    0.0000 H   0  0  0  0  0  0  0  0  0  0  0  0
    4.2690   -2.1550    0.0000 H   0  0  0  0  0  0  0  0  0  0  0  0
    2.3291   -3.6550    0.0000 H   0  0  0  0  0  0  0  0  0  0  0  0
  1  5  1  0  0  0  0
  1  8  1  0  0  0  0
  2  8  2  0  0  0  0
  3 13  1  0  0  0  0
  3 25  1  0  0  0  0
  4  5  1  0  0  0  0
  4  7  1  0  0  0  0
  4 14  1  0  0  0  0
  4 15  1  0  0  0  0
  5 16  1  0  0  0  0
  5 17  1  0  0  0  0
  6  8  1  0  0  0  0
  6  9  2  0  0  0  0
  6 10  1  0  0  0  0
  7 18  1  0  0  0  0
  7 19  1  0  0  0  0
  7 20  1  0  0  0  0
  9 11  1  0  0  0  0
  9 21  1  0  0  0  0
 10 12  2  0  0  0  0
 10 22  1  0  0  0  0
 11 13  2  0  0  0  0
 11 23  1  0  0  0  0
 12 13  1  0  0  0  0
 12 24  1  0  0  0  0
M  END
> <PUBCHEM_COMPOUND_CID>
7175

> <PUBCHEM_COMPOUND_CANONICALIZED>
1

> <PUBCHEM_CACTVS_COMPLEXITY>
160

> <PUBCHEM_CACTVS_HBOND_ACCEPTOR>
3

> <PUBCHEM_CACTVS_HBOND_DONOR>
1

> <PUBCHEM_CACTVS_ROTATABLE_BOND>
4

> <PUBCHEM_CACTVS_SUBSKEYS>
AAADccBwMAAAAAAAAAAAAAAAAAAAAAAAAAAwAAAAAAAAAAABAAAAGgAACAAADASgmAIyDoAABgCIAiDSCAACAAAkIAAIiAEGCMgIJjKCNRqCcQAkwBEIuYeI7CzOIAAAAAAAAABAAAAAAAAAAAAAAAAAAA==

> <PUBCHEM_IUPAC_OPENEYE_NAME>
propyl 4-hydroxybenzoate

> <PUBCHEM_IUPAC_CAS_NAME>
4-hydroxybenzoic acid propyl ester

> <PUBCHEM_IUPAC_NAME_MARKUP>
propyl 4-hydroxybenzoate

> <PUBCHEM_IUPAC_NAME>
propyl 4-hydroxybenzoate

> <PUBCHEM_IUPAC_SYSTEMATIC_NAME>
propyl 4-oxidanylbenzoate

> <PUBCHEM_IUPAC_TRADITIONAL_NAME>
propylparaben

> <PUBCHEM_IUPAC_INCHI>
InChI=1S/C10H12O3/c1-2-7-13-10(12)8-3-5-9(11)6-4-8/h3-6,11H,2,7H2,1H3

> <PUBCHEM_IUPAC_INCHIKEY>
QELSKZZBTMNZEB-UHFFFAOYSA-N

> <PUBCHEM_XLOGP3>
3

> <PUBCHEM_EXACT_MASS>
180.078644241

> <PUBCHEM_MOLECULAR_FORMULA>
C10H12O3

> <PUBCHEM_MOLECULAR_WEIGHT>
180.20

> <PUBCHEM_OPENEYE_CAN_SMILES>
CCCOC(=O)C1=CC=C(C=C1)O

> <PUBCHEM_OPENEYE_ISO_SMILES>
CCCOC(=O)C1=CC=C(C=C1)O

> <PUBCHEM_CACTVS_TPSA>
46.5

> <PUBCHEM_MONOISOTOPIC_WEIGHT>
180.078644241

> <PUBCHEM_TOTAL_CHARGE>
0

> <PUBCHEM_HEAVY_ATOM_COUNT>
13

> <PUBCHEM_ATOM_DEF_STEREO_COUNT>
0

> <PUBCHEM_ATOM_UDEF_STEREO_COUNT>
0

> <PUBCHEM_BOND_DEF_STEREO_COUNT>
0

> <PUBCHEM_BOND_UDEF_STEREO_COUNT>
0

> <PUBCHEM_ISOTOPIC_ATOM_COUNT>
0

> <PUBCHEM_COMPONENT_COUNT>
1

> <PUBCHEM_CACTVS_TAUTO_COUNT>
4

> <PUBCHEM_COORDINATE_TYPE>
1
5
255

> <PUBCHEM_BONDANNOTATIONS>
10  12  8
11  13  8
12  13  8
6  10  8
6  9  8
9  11  8

$$$$
7184
  -OEChem-09232400292D

 28 28  0     0  0  0  0  0  0999 V2000
    3.7320    0.9050    0.0000 O   0  0  0  0  0  0  0  0  0  0  0  0
    2.0000    0.9050    0.0000 O   0  0  0  0  0  0  0  0  0  0  0  0
    2.8660   -3.5950    0.0000 O   0  0  0  0  0  0  0  0  0  0  0  0
    4.5981    2.4050    0.0000 C   0  0  0  0  0  0  0  0  0  0  0  0
    4.5981    3.4050    0.0000 C   0  0  0  0  0  0  0  0  0  0  0  0
    3.7320    1.9050    0.0000 C   0  0  0  0  0  0  0  0  0  0  0  0
    5.4641    3.9050    0.0000 C   0  0  0  0  0  0  0  0  0  0  0  0
    2.8660   -0.5950    0.0000 C   0  0  0  0  0  0  0  0  0  0  0  0
    2.8660    0.4050    0.0000 C   0  0  0  0  0  0  0  0  0  0  0  0
    2.0000   -1.0950    0.0000 C   0  0  0  0  0  0  0  0  0  0  0  0
    3.7320   -1.0950    0.0000 C   0  0  0  0  0  0  0  0  0  0  0  0
    2.0000   -2.0950    0.0000 C   0  0  0  0  0  0  0  0  0  0  0  0
    3.7320   -2.0950    0.0000 C   0  0  0  0  0  0  0  0  0  0  0  0
    2.8660   -2.5950    0.0000 C   0  0  0  0  0  0  0  0  0  0  0  0
    4.8101    1.8224    0.0000 H   0  0  0  0  0  0  0  0  0  0  0  0
    5.2087    2.5127    0.0000 H   0  0  0  0  0  0  0  0  0  0  0  0
    4.3860    3.9876    0.0000 H   0  0  0  0  0  0  0  0  0  0  0  0
    3.9875    3.2973    0.0000 H   0  0  0  0  0  0  0  0  0  0  0  0
    3.5200    2.4876    0.0000 H   0  0  0  0  0  0  0  0  0  0  0  0
    3.1215    1.7973    0.0000 H   0  0  0  0  0  0  0  0  0  0  0  0
    5.7741    3.3681    0.0000 H   0  0  0  0  0  0  0  0  0  0  0  0
    6.0010    4.2150    0.0000 H   0  0  0  0  0  0  0  0  0  0  0  0
    5.1541    4.4419    0.0000 H   0  0  0  0  0  0  0  0  0  0  0  0
    1.4631   -0.7850    0.0000 H   0  0  0  0  0  0  0  0  0  0  0  0
    4.2690   -0.7850    0.0000 H   0  0  0  0  0  0  0  0  0  0  0  0
    1.4631   -2.4050    0.0000 H   0  0  0  0  0  0  0  0  0  0  0  0
    4.2690   -2.4050    0.0000 H   0  0  0  0  0  0  0  0  0  0  0  0
    2.3291   -3.9050    0.0000 H   0  0  0  0  0  0  0  0  0  0  0  0
  1  6  1  0  0  0  0
  1  9  1  0  0  0  0
  2  9  2  0  0  0  0
  3 14  1  0  0  0  0
  3 28  1  0  0  0  0
  4  5  1  0  0  0  0
  4  6  1  0  0  0  0
  4 15  1  0  0  0  0
  4 16  1  0  0  0  0
  5  7  1  0  0  0  0
  5 17  1  0  0  0  0
  5 18  1  0  0  0  0
  6 19  1  0  0  0  0
  6 20  1  0  0  0  0
  7 21  1  0  0  0  0
  7 22  1  0  0  0  0
  7 23  1  0  0  0  0
  8  9  1  0  0  0  0
  8 10  2  0  0  0  0
  8 11  1  0  0  0  0
 10 12  1  0  0  0  0
 10 24  1  0  0  0  0
 11 13  2  0  0  0  0
 11 25  1  0  0  0  0
 12 14  2  0  0  0  0
 12 26  1  0  0  0  0
 13 14  1  0  0  0  0
 13 27  1  0  0  0  0
M  END
> <PUBCHEM_COMPOUND_CID>
7184

> <PUBCHEM_COMPOUND_CANONICALIZED>
1

> <PUBCHEM_CACTVS_COMPLEXITY>
171

> <PUBCHEM_CACTVS_HBOND_ACCEPTOR>
3

> <PUBCHEM_CACTVS_HBOND_DONOR>
1

> <PUBCHEM_CACTVS_ROTATABLE_BOND>
5

> <PUBCHEM_CACTVS_SUBSKEYS>
AAADccBwMAAAAAAAAAAAAAAAAAAAAAAAAAAwAAAAAAAAAAABAAAAGgAACAAADASgmAIyDoAABgCIAiDSCAACAAAkIAAIiAEGCMgIJjKCNRqCcQAkwBEIuYeI7CzOIAAAAAAAAABAAAAAAAAAAAAAAAAAAA==

> <PUBCHEM_IUPAC_OPENEYE_NAME>
butyl 4-hydroxybenzoate

> <PUBCHEM_IUPAC_CAS_NAME>
4-hydroxybenzoic acid butyl ester

> <PUBCHEM_IUPAC_NAME_MARKUP>
butyl 4-hydroxybenzoate

> <PUBCHEM_IUPAC_NAME>
butyl 4-hydroxybenzoate

> <PUBCHEM_IUPAC_SYSTEMATIC_NAME>
butyl 4-oxidanylbenzoate

> <PUBCHEM_IUPAC_TRADITIONAL_NAME>
4-hydroxybenzoic acid butyl ester

> <PUBCHEM_IUPAC_INCHI>
InChI=1S/C11H14O3/c1-2-3-8-14-11(13)9-4-6-10(12)7-5-9/h4-7,12H,2-3,8H2,1H3

> <PUBCHEM_IUPAC_INCHIKEY>
QFOHBWFCKVYLES-UHFFFAOYSA-N

> <PUBCHEM_XLOGP3>
3.6

> <PUBCHEM_EXACT_MASS>
194.094294304

> <PUBCHEM_MOLECULAR_FORMULA>
C11H14O3

> <PUBCHEM_MOLECULAR_WEIGHT>
194.23

> <PUBCHEM_OPENEYE_CAN_SMILES>
CCCCOC(=O)C1=CC=C(C=C1)O

> <PUBCHEM_OPENEYE_ISO_SMILES>
CCCCOC(=O)C1=CC=C(C=C1)O

> <PUBCHEM_CACTVS_TPSA>
46.5

> <PUBCHEM_MONOISOTOPIC_WEIGHT>
194.094294304

> <PUBCHEM_TOTAL_CHARGE>
0

> <PUBCHEM_HEAVY_ATOM_COUNT>
14

> <PUBCHEM_ATOM_DEF_STEREO_COUNT>
0

> <PUBCHEM_ATOM_UDEF_STEREO_COUNT>
0

> <PUBCHEM_BOND_DEF_STEREO_COUNT>
0

> <PUBCHEM_BOND_UDEF_STEREO_COUNT>
0

> <PUBCHEM_ISOTOPIC_ATOM_COUNT>
0

> <PUBCHEM_COMPONENT_COUNT>
1

> <PUBCHEM_CACTVS_TAUTO_COUNT>
1

> <PUBCHEM_COORDINATE_TYPE>
1
5
255

> <PUBCHEM_BONDANNOTATIONS>
10  12  8
11  13  8
12  14  8
13  14  8
8  10  8
8  11  8

$$$$
409301
  -OEChem-09232400292D

  6  5  0     0  0  0  0  0  0999 V2000
    2.8660   -0.2500    0.0000 Hg  0  0  0  0  0  0  0  0  0  0  0  0
    3.7320    0.2500    0.0000 Cl  0  0  0  0  0  0  0  0  0  0  0  0
    2.0000    0.2500    0.0000 C   0  0  0  0  0  0  0  0  0  0  0  0
    2.3100    0.7869    0.0000 H   0  0  0  0  0  0  0  0  0  0  0  0
    1.4631    0.5600    0.0000 H   0  0  0  0  0  0  0  0  0  0  0  0
    1.6900   -0.2869    0.0000 H   0  0  0  0  0  0  0  0  0  0  0  0
  1  2  1  0  0  0  0
  1  3  1  0  0  0  0
  3  4  1  0  0  0  0
  3  5  1  0  0  0  0
  3  6  1  0  0  0  0
M  END
> <PUBCHEM_COMPOUND_CID>
409301

> <PUBCHEM_COMPOUND_CANONICALIZED>
1

> <PUBCHEM_CACTVS_COMPLEXITY>
4.8

> <PUBCHEM_CACTVS_HBOND_ACCEPTOR>
0

> <PUBCHEM_CACTVS_HBOND_DONOR>
0

> <PUBCHEM_CACTVS_ROTATABLE_BOND>
0

> <PUBCHEM_CACTVS_SUBSKEYS>
AAADcQAAAAAEAAAAAAAAAQAAAAAAAAAAAAAAAAAAAAAAAAAAAAAAEAAAAAAAAAAAAAACAAAAAAAAAAAAAAAAAAAAAAAAAAAAAAAAAAAAAAAAAAAAAAAAAAAAAAAAAAAAAAAAAAAAAAAAAAAAAAAAAAAAAA==

> <PUBCHEM_IUPAC_OPENEYE_NAME>
chloro(methyl)mercury

> <PUBCHEM_IUPAC_CAS_NAME>
chloro(methyl)mercury

> <PUBCHEM_IUPAC_NAME_MARKUP>
chloro(methyl)mercury

> <PUBCHEM_IUPAC_NAME>
chloro(methyl)mercury

> <PUBCHEM_IUPAC_SYSTEMATIC_NAME>
chloranyl(methyl)mercury

> <PUBCHEM_IUPAC_TRADITIONAL_NAME>
chloro(methyl)mercury

> <PUBCHEM_IUPAC_INCHI>
InChI=1S/CH3.ClH.Hg/h1H3;1H;/q;;+1/p-1

> <PUBCHEM_IUPAC_INCHIKEY>
BABMCXWQNSQAOC-UHFFFAOYSA-M

> <PUBCHEM_EXACT_MASS>
251.962971

> <PUBCHEM_MOLECULAR_FORMULA>
CH3ClHg

> <PUBCHEM_MOLECULAR_WEIGHT>
251.08

> <PUBCHEM_OPENEYE_CAN_SMILES>
C[Hg]Cl

> <PUBCHEM_OPENEYE_ISO_SMILES>
C[Hg]Cl

> <PUBCHEM_CACTVS_TPSA>
0

> <PUBCHEM_MONOISOTOPIC_WEIGHT>
251.962971

> <PUBCHEM_TOTAL_CHARGE>
0

> <PUBCHEM_HEAVY_ATOM_COUNT>
3

> <PUBCHEM_ATOM_DEF_STEREO_COUNT>
0

> <PUBCHEM_ATOM_UDEF_STEREO_COUNT>
0

> <PUBCHEM_BOND_DEF_STEREO_COUNT>
0

> <PUBCHEM_BOND_UDEF_STEREO_COUNT>
0

> <PUBCHEM_ISOTOPIC_ATOM_COUNT>
0

> <PUBCHEM_COMPONENT_COUNT>
1

> <PUBCHEM_CACTVS_TAUTO_COUNT>
-1

> <PUBCHEM_COORDINATE_TYPE>
1
5
255

$$$$
24462
  -OEChem-09232400292D

  6  4  0     0  0  0  0  0  0999 V2000
    2.0000   -1.0000    0.0000 Cu  0  2  0  0  0  0  0  0  0  0  0  0
    3.0000    0.0000    0.0000 S   0  0  0  0  0  0  0  0  0  0  0  0
    2.0000    0.0000    0.0000 O   0  5  0  0  0  0  0  0  0  0  0  0
    3.0000   -1.0000    0.0000 O   0  5  0  0  0  0  0  0  0  0  0  0
    4.0000   -0.0000    0.0000 O   0  0  0  0  0  0  0  0  0  0  0  0
    3.0000    1.0000    0.0000 O   0  0  0  0  0  0  0  0  0  0  0  0
  2  3  1  0  0  0  0
  2  4  1  0  0  0  0
  2  5  2  0  0  0  0
  2  6  2  0  0  0  0
M  CHG  3   1   2   3  -1   4  -1
M  END
> <PUBCHEM_COMPOUND_CID>
24462

> <PUBCHEM_COMPOUND_CANONICALIZED>
1

> <PUBCHEM_CACTVS_COMPLEXITY>
62.2

> <PUBCHEM_CACTVS_HBOND_ACCEPTOR>
4

> <PUBCHEM_CACTVS_HBOND_DONOR>
0

> <PUBCHEM_CACTVS_ROTATABLE_BOND>
0

> <PUBCHEM_CACTVS_SUBSKEYS>
AAADcQAAOABAAAAEAAAAAAAAAAAAAAAAAAAAAAAAAAAAAAAAAAAAAAAAAAAAAAAAAAAAAAAAAAAAAAAAADAAAAAAAAAAAAAAAAAAAAAAAAAAAAAAAAAAAAAAAAAAAAAAAAAAAAAAAAAAAAAAAAAAAAAAAA==

> <PUBCHEM_IUPAC_OPENEYE_NAME>
copper;sulfate

> <PUBCHEM_IUPAC_CAS_NAME>
copper;sulfate

> <PUBCHEM_IUPAC_NAME_MARKUP>
copper;sulfate

> <PUBCHEM_IUPAC_NAME>
copper;sulfate

> <PUBCHEM_IUPAC_SYSTEMATIC_NAME>
copper;sulfate

> <PUBCHEM_IUPAC_TRADITIONAL_NAME>
cupric;sulfate

> <PUBCHEM_IUPAC_INCHI>
InChI=1S/Cu.H2O4S/c;1-5(2,3)4/h;(H2,1,2,3,4)/q+2;/p-2

> <PUBCHEM_IUPAC_INCHIKEY>
ARUVKPQLZAKDPS-UHFFFAOYSA-L

> <PUBCHEM_EXACT_MASS>
158.881327

> <PUBCHEM_MOLECULAR_FORMULA>
CuO4S

> <PUBCHEM_MOLECULAR_WEIGHT>
159.61

> <PUBCHEM_OPENEYE_CAN_SMILES>
[O-]S(=O)(=O)[O-].[Cu+2]

> <PUBCHEM_OPENEYE_ISO_SMILES>
[O-]S(=O)(=O)[O-].[Cu+2]

> <PUBCHEM_CACTVS_TPSA>
88.6

> <PUBCHEM_MONOISOTOPIC_WEIGHT>
158.881327

> <PUBCHEM_TOTAL_CHARGE>
0

> <PUBCHEM_HEAVY_ATOM_COUNT>
6

> <PUBCHEM_ATOM_DEF_STEREO_COUNT>
0

> <PUBCHEM_ATOM_UDEF_STEREO_COUNT>
0

> <PUBCHEM_BOND_DEF_STEREO_COUNT>
0

> <PUBCHEM_BOND_UDEF_STEREO_COUNT>
0

> <PUBCHEM_ISOTOPIC_ATOM_COUNT>
0

> <PUBCHEM_COMPONENT_COUNT>
2

> <PUBCHEM_CACTVS_TAUTO_COUNT>
-1

> <PUBCHEM_COORDINATE_TYPE>
1
5
255

$$$$
24934
  -OEChem-09232400292D

  6  3  0     0  0  0  0  0  0999 V2000
    3.7320    0.2500    0.0000 Se  0  0  0  0  0  0  0  0  0  0  0  0
    5.4641    0.2500    0.0000 Na  0  3  0  0  0  0  0  0  0  0  0  0
    2.0000    0.2500    0.0000 Na  0  3  0  0  0  0  0  0  0  0  0  0
    4.5981    0.7500    0.0000 O   0  5  0  0  0  0  0  0  0  0  0  0
    2.8660    0.7500    0.0000 O   0  5  0  0  0  0  0  0  0  0  0  0
    3.7320   -0.7500    0.0000 O   0  0  0  0  0  0  0  0  0  0  0  0
  1  4  1  0  0  0  0
  1  5  1  0  0  0  0
  1  6  2  0  0  0  0
M  CHG  4   2   1   3   1   4  -1   5  -1
M  END
> <PUBCHEM_COMPOUND_CID>
24934

> <PUBCHEM_COMPOUND_CANONICALIZED>
1

> <PUBCHEM_CACTVS_COMPLEXITY>
18.8

> <PUBCHEM_CACTVS_HBOND_ACCEPTOR>
3

> <PUBCHEM_CACTVS_HBOND_DONOR>
0

> <PUBCHEM_CACTVS_ROTATABLE_BOND>
0

> <PUBCHEM_CACTVS_SUBSKEYS>
AAADcQAAMDAAAAAAIAAAAAAAAAAAAAAAAAAAAAAAAAAAAAAAAAAAAAAAAAAAAAAAAAAAAAAAAAAAAAAAAAAAAAAAAAAAAAAAAAAAAAAAAAAAAAAAAAAAAAAAAAAAAAAAAAAAAAAAAAAAAAAAAAAAAAAAAA==

> <PUBCHEM_IUPAC_OPENEYE_NAME>
disodium;selenite

> <PUBCHEM_IUPAC_CAS_NAME>
disodium;selenite

> <PUBCHEM_IUPAC_NAME_MARKUP>
disodium;selenite

> <PUBCHEM_IUPAC_NAME>
disodium;selenite

> <PUBCHEM_IUPAC_SYSTEMATIC_NAME>
disodium;selenite

> <PUBCHEM_IUPAC_TRADITIONAL_NAME>
disodium;selenite

> <PUBCHEM_IUPAC_INCHI>
InChI=1S/2Na.H2O3Se/c;;1-4(2)3/h;;(H2,1,2,3)/q2*+1;/p-2

> <PUBCHEM_IUPAC_INCHIKEY>
BVTBRVFYZUCAKH-UHFFFAOYSA-L

> <PUBCHEM_EXACT_MASS>
173.88080

> <PUBCHEM_MOLECULAR_FORMULA>
Na2O3Se

> <PUBCHEM_MOLECULAR_WEIGHT>
172.95

> <PUBCHEM_OPENEYE_CAN_SMILES>
[O-][Se](=O)[O-].[Na+].[Na+]

> <PUBCHEM_OPENEYE_ISO_SMILES>
[O-][Se](=O)[O-].[Na+].[Na+]

> <PUBCHEM_CACTVS_TPSA>
63.2

> <PUBCHEM_MONOISOTOPIC_WEIGHT>
173.88080

> <PUBCHEM_TOTAL_CHARGE>
0

> <PUBCHEM_HEAVY_ATOM_COUNT>
6

> <PUBCHEM_ATOM_DEF_STEREO_COUNT>
0

> <PUBCHEM_ATOM_UDEF_STEREO_COUNT>
0

> <PUBCHEM_BOND_DEF_STEREO_COUNT>
0

> <PUBCHEM_BOND_UDEF_STEREO_COUNT>
0

> <PUBCHEM_ISOTOPIC_ATOM_COUNT>
0

> <PUBCHEM_COMPONENT_COUNT>
3

> <PUBCHEM_CACTVS_TAUTO_COUNT>
-1

> <PUBCHEM_COORDINATE_TYPE>
1
5
255

$$$$
24459
  -OEChem-09232400292D

  3  2  0     0  0  0  0  0  0999 V2000
    2.8660   -0.2500    0.0000 Pb  0  0  0  0  0  0  0  0  0  0  0  0
    3.7320    0.2500    0.0000 Cl  0  0  0  0  0  0  0  0  0  0  0  0
    2.0000    0.2500    0.0000 Cl  0  0  0  0  0  0  0  0  0  0  0  0
  1  2  1  0  0  0  0
  1  3  1  0  0  0  0
M  END
> <PUBCHEM_COMPOUND_CID>
24459

> <PUBCHEM_COMPOUND_CANONICALIZED>
1

> <PUBCHEM_CACTVS_COMPLEXITY>
2.8

> <PUBCHEM_CACTVS_HBOND_ACCEPTOR>
0

> <PUBCHEM_CACTVS_HBOND_DONOR>
0

> <PUBCHEM_CACTVS_ROTATABLE_BOND>
0

> <PUBCHEM_CACTVS_SUBSKEYS>
AAADcQAAAAAGAAAAAAAAAEAAAAAAAAAAAAAAAAAAAAAAAAAAAAAAAAAAAAAAAAAAAAAAAAAAAAAAAAAAAAAAAAAAAAAAAAAAAAAAAAAAAAAAAAAAAAAAAAAAAAAAAAAAAAAAAAAAAAAAAAAAAAAAAAAAAA==

> <PUBCHEM_IUPAC_OPENEYE_NAME>
dichlorolead

> <PUBCHEM_IUPAC_CAS_NAME>
dichlorolead

> <PUBCHEM_IUPAC_NAME_MARKUP>
dichlorolead

> <PUBCHEM_IUPAC_NAME>
dichlorolead

> <PUBCHEM_IUPAC_SYSTEMATIC_NAME>
bis(chloranyl)lead

> <PUBCHEM_IUPAC_TRADITIONAL_NAME>
dichlorolead

> <PUBCHEM_IUPAC_INCHI>
InChI=1S/2ClH.Pb/h2*1H;/q;;+2/p-2

> <PUBCHEM_IUPAC_INCHIKEY>
HWSZZLVAJGOAAY-UHFFFAOYSA-L

> <PUBCHEM_EXACT_MASS>
277.91436

> <PUBCHEM_MOLECULAR_FORMULA>
Cl2Pb

> <PUBCHEM_MOLECULAR_WEIGHT>
278

> <PUBCHEM_OPENEYE_CAN_SMILES>
Cl[Pb]Cl

> <PUBCHEM_OPENEYE_ISO_SMILES>
Cl[Pb]Cl

> <PUBCHEM_CACTVS_TPSA>
0

> <PUBCHEM_MONOISOTOPIC_WEIGHT>
277.91436

> <PUBCHEM_TOTAL_CHARGE>
0

> <PUBCHEM_HEAVY_ATOM_COUNT>
3

> <PUBCHEM_ATOM_DEF_STEREO_COUNT>
0

> <PUBCHEM_ATOM_UDEF_STEREO_COUNT>
0

> <PUBCHEM_BOND_DEF_STEREO_COUNT>
0

> <PUBCHEM_BOND_UDEF_STEREO_COUNT>
0

> <PUBCHEM_ISOTOPIC_ATOM_COUNT>
0

> <PUBCHEM_COMPONENT_COUNT>
1

> <PUBCHEM_CACTVS_TAUTO_COUNT>
-1

> <PUBCHEM_COORDINATE_TYPE>
1
5
255

$$$$
